test/TEST190523/MAI_VLN_Node.Txt

LINE-GROUND and LINE-LINE VOLTAGES BY BUS & NODE

Bus           Node    VLN (kV)   Angle      pu     Base kV    Node-Node   VLL (kV)  Angle      pu

SOURCEBUS ... 1       41.833 /_   -0.1    1.0501    69.000        1-2     72.461 /_   29.8    1.0502
   -          2       41.824 /_ -120.2    1.0499    69.000        2-3     72.416 /_  -90.2    1.0495
   -          3       41.807 /_  119.9    1.0495    69.000        3-1     72.433 /_  149.9    1.0498
BUSMVMAI1 ... 1       7.3743 /_  -30.4   0.99786    12.800        1-2     12.779 /_   -0.5   0.99838
   -          2       7.3761 /_ -150.5    0.9981    12.800        2-3     12.771 /_ -120.6   0.99776
   -          3       7.3645 /_   89.4   0.99654    12.800        3-1     12.753 /_  119.5   0.99637
BUSMVMAI136 . 1       7.3743 /_  -30.4    1.0214    12.505        1-2     12.779 /_   -0.5    1.0219
   -          2        7.376 /_ -150.5    1.0216    12.505        2-3     12.771 /_ -120.6    1.0213
   -          3       7.3645 /_   89.4      1.02    12.505        3-1     12.753 /_  119.5    1.0198
BUSMVMAI3 ... 1       7.3713 /_  -30.8     1.021    12.505        1-2     12.746 /_   -0.9    1.0193
   -          2       7.3463 /_ -150.8    1.0175    12.505        2-3      12.74 /_ -121.1    1.0188
   -          3       7.3322 /_   88.7    1.0155    12.505        3-1     12.704 /_  119.0    1.0159
BUSMVMAI2 ... 1       7.3713 /_  -30.8     1.021    12.505        1-2     12.746 /_   -0.9    1.0192
   -          2       7.3462 /_ -150.9    1.0175    12.505        2-3      12.74 /_ -121.1    1.0188
   -          3       7.3321 /_   88.7    1.0155    12.505        3-1     12.704 /_  119.0    1.0159
BUSMVMAI4 ... 1       7.3712 /_  -30.9    1.0209    12.505        1-2     12.745 /_   -0.9    1.0192
   -          2       7.3454 /_ -150.9    1.0174    12.505        2-3      12.74 /_ -121.1    1.0187
   -          3       7.3312 /_   88.7    1.0154    12.505        3-1     12.703 /_  119.0    1.0158
BUSMVMAI46 .. 1       7.3713 /_  -30.8     1.021    12.505        1-2     12.746 /_   -0.9    1.0193
   -          2       7.3463 /_ -150.8    1.0175    12.505        2-3      12.74 /_ -121.1    1.0188
   -          3       7.3322 /_   88.7    1.0155    12.505        3-1     12.704 /_  119.0    1.0159
BUSMVMAI5 ... 1       7.3709 /_  -30.9    1.0209    12.505        1-2     12.744 /_   -0.9    1.0191
   -          2       7.3443 /_ -150.9    1.0172    12.505        2-3     12.738 /_ -121.1    1.0186
   -          3       7.3301 /_   88.7    1.0152    12.505        3-1     12.701 /_  119.0    1.0157
BUSMVMAI862 . 1       7.3712 /_  -30.9    1.0209    12.505
BUSMVMAI6 ... 1       7.3709 /_  -30.9    1.0209    12.505        1-2     12.744 /_   -0.9    1.0191
   -          2       7.3442 /_ -150.9    1.0172    12.505        2-3     12.738 /_ -121.1    1.0186
   -          3       7.3299 /_   88.7    1.0152    12.505        3-1     12.701 /_  119.0    1.0156
BUSMVMAI859 . 3       7.3301 /_   88.7    1.0152    12.505
BUSMVMAI860 . 3       7.3301 /_   88.7    1.0152    12.505
BUSMVMAI7 ... 1       7.3704 /_  -30.9    1.0208    12.505        1-2     12.743 /_   -0.9     1.019
   -          2       7.3433 /_ -150.9    1.0171    12.505        2-3     12.737 /_ -121.1    1.0185
   -          3        7.329 /_   88.7    1.0151    12.505        3-1     12.699 /_  119.0    1.0155
BUSMVMAI8 ... 1       7.3706 /_  -30.9    1.0209    12.505        1-2     12.742 /_   -0.9    1.0189
   -          2        7.342 /_ -150.9    1.0169    12.505        2-3     12.736 /_ -121.2    1.0184
   -          3       7.3284 /_   88.6     1.015    12.505        3-1     12.698 /_  119.0    1.0154
BUSMVMAI9 ... 1       7.3704 /_  -30.9    1.0208    12.505        1-2     12.743 /_   -0.9     1.019
   -          2       7.3433 /_ -150.9    1.0171    12.505        2-3     12.737 /_ -121.1    1.0185
   -          3        7.329 /_   88.7    1.0151    12.505        3-1     12.699 /_  119.0    1.0155
BUSMVMAI10 .. 1       7.3701 /_  -30.9    1.0208    12.505        1-2     12.742 /_   -0.9    1.0189
   -          2       7.3433 /_ -150.9    1.0171    12.505        2-3     12.737 /_ -121.1    1.0185
   -          3       7.3287 /_   88.7    1.0151    12.505        3-1     12.699 /_  119.0    1.0155
BUSMVMAI56 .. 1       7.3702 /_  -30.9    1.0208    12.505        1-2     12.742 /_   -0.9    1.0189
   -          2       7.3433 /_ -150.9    1.0171    12.505        2-3     12.737 /_ -121.1    1.0185
   -          3       7.3288 /_   88.7    1.0151    12.505        3-1     12.699 /_  119.0    1.0155
BUSMVMAI861 . 3         7.33 /_   88.7    1.0152    12.505
BUSMVMAI12 .. 1       7.3708 /_  -30.9    1.0209    12.505        1-2     12.741 /_   -1.0    1.0189
   -          2        7.341 /_ -150.9    1.0168    12.505        2-3     12.735 /_ -121.2    1.0184
   -          3       7.3279 /_   88.6    1.0149    12.505        3-1     12.697 /_  119.0    1.0153
BUSMVMAI51 .. 1       7.3706 /_  -30.9    1.0209    12.505        1-2     12.742 /_   -0.9    1.0189
   -          2        7.342 /_ -150.9    1.0169    12.505        2-3     12.736 /_ -121.2    1.0184
   -          3       7.3284 /_   88.6     1.015    12.505        3-1     12.698 /_  119.0    1.0154
BUSMVMAI2171  1       7.3706 /_  -30.9    1.0209    12.505
BUSMVMAI863 . 3         7.33 /_   88.7    1.0152    12.505
BUSMVMAI2165  3        7.329 /_   88.7    1.0151    12.505
BUSMVMAI694 . 1       7.3704 /_  -30.9    1.0208    12.505        1-2     12.743 /_   -0.9     1.019
   -          2       7.3433 /_ -150.9    1.0171    12.505        2-3     12.737 /_ -121.1    1.0185
   -          3        7.329 /_   88.7    1.0151    12.505        3-1     12.699 /_  119.0    1.0155
BUSMVMAI122 . 1         7.37 /_  -30.9    1.0208    12.505        1-2     12.742 /_   -0.9    1.0189
   -          2       7.3433 /_ -150.9    1.0171    12.505        2-3     12.737 /_ -121.1    1.0185
   -          3       7.3287 /_   88.7     1.015    12.505        3-1     12.699 /_  119.0    1.0155
BUSMVMAI11 .. 1       7.3708 /_  -30.9    1.0209    12.505        1-2     12.741 /_   -1.0    1.0189
   -          2        7.341 /_ -150.9    1.0168    12.505        2-3     12.735 /_ -121.2    1.0184
   -          3       7.3279 /_   88.6    1.0149    12.505        3-1     12.697 /_  119.0    1.0153
BUSMVMAI13 .. 1       7.3708 /_  -30.9    1.0209    12.505        1-2     12.741 /_   -1.0    1.0189
   -          2       7.3409 /_ -150.9    1.0168    12.505        2-3     12.735 /_ -121.2    1.0184
   -          3       7.3279 /_   88.6    1.0149    12.505        3-1     12.697 /_  119.0    1.0153
BUSMVMAI18 .. 1       7.3708 /_  -30.9    1.0209    12.505        1-2     12.741 /_   -1.0    1.0189
   -          2       7.3406 /_ -150.9    1.0167    12.505        2-3     12.735 /_ -121.2    1.0183
   -          3       7.3277 /_   88.6    1.0149    12.505        3-1     12.697 /_  119.0    1.0153
BUSMVMAI14 .. 1       7.3708 /_  -30.9    1.0209    12.505        1-2     12.741 /_   -1.0    1.0189
   -          2       7.3409 /_ -150.9    1.0167    12.505        2-3     12.735 /_ -121.2    1.0184
   -          3       7.3279 /_   88.6    1.0149    12.505        3-1     12.697 /_  119.0    1.0153
BUSMVMAI15 .. 1       7.3708 /_  -30.9    1.0209    12.505        1-2     12.741 /_   -1.0    1.0189
   -          2       7.3409 /_ -150.9    1.0167    12.505        2-3     12.735 /_ -121.2    1.0184
   -          3       7.3279 /_   88.6    1.0149    12.505        3-1     12.697 /_  119.0    1.0153
BUSMVMAI16 .. 1       7.3708 /_  -30.9    1.0209    12.505        1-2     12.741 /_   -1.0    1.0189
   -          2       7.3409 /_ -150.9    1.0167    12.505        2-3     12.735 /_ -121.2    1.0184
   -          3       7.3279 /_   88.6    1.0149    12.505        3-1     12.697 /_  119.0    1.0153
BUSMVMAI2166  2       7.3409 /_ -150.9    1.0167    12.505
BUSMVMAI2172  1       7.3712 /_  -30.9    1.0209    12.505
BUSMVMAI864 . 3         7.33 /_   88.7    1.0152    12.505
BUSMVMAI865 . 3       7.3299 /_   88.7    1.0152    12.505
BUSMVMAI17 .. 1       7.3708 /_  -30.9    1.0209    12.505        1-2     12.741 /_   -1.0    1.0189
   -          2       7.3409 /_ -150.9    1.0167    12.505        2-3     12.735 /_ -121.2    1.0184
   -          3       7.3279 /_   88.6    1.0149    12.505        3-1     12.697 /_  119.0    1.0153
BUSMVMAI695 . 1       7.3708 /_  -30.9    1.0209    12.505        1-2     12.741 /_   -1.0    1.0189
   -          2       7.3409 /_ -150.9    1.0167    12.505        2-3     12.735 /_ -121.2    1.0184
   -          3       7.3279 /_   88.6    1.0149    12.505        3-1     12.697 /_  119.0    1.0153
BUSMVMAI866 . 3       7.3299 /_   88.7    1.0152    12.505
BUSMVMAI2176  3       7.3299 /_   88.7    1.0152    12.505
BUSMVMAI2177  3       7.3299 /_   88.7    1.0152    12.505
BUSMVMAI2178  3       7.3299 /_   88.7    1.0152    12.505
BUSMVMAI19 .. 1        7.371 /_  -30.9    1.0209    12.505        1-2     12.741 /_   -1.0    1.0188
   -          2       7.3399 /_ -150.9    1.0166    12.505        2-3     12.734 /_ -121.2    1.0183
   -          3       7.3274 /_   88.6    1.0149    12.505        3-1     12.696 /_  119.0    1.0152
BUSMVMAI20 .. 1       7.3711 /_  -30.9    1.0209    12.505        1-2     12.741 /_   -1.0    1.0188
   -          2       7.3389 /_ -150.9    1.0165    12.505        2-3     12.733 /_ -121.2    1.0182
   -          3       7.3269 /_   88.6    1.0148    12.505        3-1     12.695 /_  119.0    1.0152
BUSMVMAI53 .. 1        7.371 /_  -30.9    1.0209    12.505        1-2     12.741 /_   -1.0    1.0188
   -          2       7.3399 /_ -150.9    1.0166    12.505        2-3     12.734 /_ -121.2    1.0183
   -          3       7.3274 /_   88.6    1.0149    12.505        3-1     12.696 /_  119.0    1.0152
BUSMVMAI21 .. 1       7.3713 /_  -30.9     1.021    12.505        1-2      12.74 /_   -1.0    1.0188
   -          2       7.3379 /_ -150.9    1.0163    12.505        2-3     12.733 /_ -121.2    1.0182
   -          3       7.3264 /_   88.6    1.0147    12.505        3-1     12.694 /_  118.9    1.0151
BUSMVMAI22 .. 1       7.3715 /_  -30.9     1.021    12.505        1-2      12.74 /_   -1.0    1.0187
   -          2       7.3366 /_ -150.9    1.0162    12.505        2-3     12.732 /_ -121.2    1.0181
   -          3       7.3259 /_   88.6    1.0147    12.505        3-1     12.693 /_  118.9     1.015
BUSMVMAI23 .. 1       7.3713 /_  -30.9     1.021    12.505        1-2      12.74 /_   -1.0    1.0188
   -          2       7.3379 /_ -150.9    1.0163    12.505        2-3     12.733 /_ -121.2    1.0182
   -          3       7.3264 /_   88.6    1.0147    12.505        3-1     12.694 /_  118.9    1.0151
BUSMVMAI25 .. 1       7.3718 /_  -30.9     1.021    12.505        1-2     12.739 /_   -1.0    1.0187
   -          2       7.3354 /_ -150.9     1.016    12.505        2-3     12.731 /_ -121.2     1.018
   -          3       7.3253 /_   88.5    1.0146    12.505        3-1     12.691 /_  118.9    1.0149
BUSMVMAI52 .. 1       7.3715 /_  -30.9     1.021    12.505        1-2      12.74 /_   -1.0    1.0187
   -          2       7.3366 /_ -150.9    1.0162    12.505        2-3     12.732 /_ -121.2    1.0181
   -          3       7.3259 /_   88.6    1.0147    12.505        3-1     12.693 /_  118.9     1.015
BUSMVMAI54 .. 1       7.3715 /_  -30.9     1.021    12.505        1-2      12.74 /_   -1.0    1.0187
   -          2       7.3366 /_ -150.9    1.0162    12.505        2-3     12.732 /_ -121.2    1.0181
   -          3       7.3259 /_   88.6    1.0147    12.505        3-1     12.693 /_  118.9     1.015
BUSMVMAI55 .. 1       7.3715 /_  -30.9     1.021    12.505        1-2      12.74 /_   -1.0    1.0187
   -          2       7.3366 /_ -150.9    1.0162    12.505        2-3     12.732 /_ -121.2    1.0181
   -          3       7.3259 /_   88.6    1.0147    12.505        3-1     12.693 /_  118.9     1.015
BUSMVMAI696 . 1       7.3713 /_  -30.9     1.021    12.505        1-2      12.74 /_   -1.0    1.0188
   -          2       7.3379 /_ -150.9    1.0163    12.505        2-3     12.733 /_ -121.2    1.0182
   -          3       7.3264 /_   88.6    1.0147    12.505        3-1     12.694 /_  118.9    1.0151
BUSMVMAI24 .. 1       7.3718 /_  -30.9     1.021    12.505        1-2     12.739 /_   -1.0    1.0187
   -          2       7.3353 /_ -150.9     1.016    12.505        2-3     12.731 /_ -121.2     1.018
   -          3       7.3253 /_   88.5    1.0146    12.505        3-1     12.691 /_  118.9    1.0149
BUSMVMAI26 .. 1        7.372 /_  -30.9    1.0211    12.505        1-2     12.738 /_   -1.0    1.0186
   -          2        7.334 /_ -150.9    1.0158    12.505        2-3      12.73 /_ -121.2    1.0179
   -          3       7.3247 /_   88.5    1.0145    12.505        3-1      12.69 /_  118.9    1.0148
BUSMVMAI49 .. 1       7.3718 /_  -30.9     1.021    12.505        1-2     12.739 /_   -1.0    1.0187
   -          2       7.3354 /_ -150.9     1.016    12.505        2-3     12.731 /_ -121.2     1.018
   -          3       7.3253 /_   88.5    1.0146    12.505        3-1     12.691 /_  118.9    1.0149
BUSMVMAI50 .. 1       7.3718 /_  -30.9     1.021    12.505        1-2     12.739 /_   -1.0    1.0187
   -          2       7.3354 /_ -150.9     1.016    12.505        2-3     12.731 /_ -121.2     1.018
   -          3       7.3253 /_   88.5    1.0146    12.505        3-1     12.691 /_  118.9    1.0149
BUSMVMAI27 .. 1        7.372 /_  -30.9    1.0211    12.505        1-2     12.738 /_   -1.0    1.0186
   -          2        7.334 /_ -150.9    1.0158    12.505        2-3      12.73 /_ -121.2    1.0179
   -          3       7.3247 /_   88.5    1.0145    12.505        3-1      12.69 /_  118.9    1.0148
BUSMVMAI28 .. 1       7.3722 /_  -30.9    1.0211    12.505        1-2     12.738 /_   -1.0    1.0186
   -          2       7.3331 /_ -150.9    1.0157    12.505        2-3     12.729 /_ -121.2    1.0179
   -          3       7.3243 /_   88.5    1.0144    12.505        3-1     12.689 /_  118.9    1.0147
BUSMVMAI29 .. 1        7.372 /_  -30.9    1.0211    12.505        1-2     12.738 /_   -1.0    1.0186
   -          2        7.334 /_ -150.9    1.0158    12.505        2-3      12.73 /_ -121.2    1.0179
   -          3       7.3247 /_   88.5    1.0145    12.505        3-1      12.69 /_  118.9    1.0148
BUSMVMAI31 .. 1       7.3724 /_  -30.9    1.0211    12.505        1-2     12.737 /_   -1.0    1.0186
   -          2       7.3319 /_ -150.9    1.0155    12.505        2-3     12.728 /_ -121.2    1.0178
   -          3       7.3238 /_   88.5    1.0144    12.505        3-1     12.688 /_  118.9    1.0146
BUSMVMAI30 .. 1        7.372 /_  -30.9     1.021    12.505        1-2     12.738 /_   -1.0    1.0186
   -          2        7.334 /_ -150.9    1.0158    12.505        2-3      12.73 /_ -121.2    1.0179
   -          3       7.3247 /_   88.5    1.0145    12.505        3-1      12.69 /_  118.9    1.0148
BUSMVMAI34 .. 1        7.372 /_  -30.9     1.021    12.505        1-2     12.738 /_   -1.0    1.0186
   -          2        7.334 /_ -150.9    1.0158    12.505        2-3      12.73 /_ -121.2    1.0179
   -          3       7.3247 /_   88.5    1.0145    12.505        3-1      12.69 /_  118.9    1.0148
BUSMVMAI867 . 1       7.3723 /_  -30.9    1.0211    12.505
BUSMVMAI43 .. 1       7.3724 /_  -30.9    1.0211    12.505        1-2     12.737 /_   -1.0    1.0186
   -          2       7.3319 /_ -150.9    1.0155    12.505        2-3     12.728 /_ -121.2    1.0178
   -          3       7.3238 /_   88.5    1.0144    12.505        3-1     12.688 /_  118.9    1.0146
BUSMVMAI871 . 2       7.3319 /_ -150.9    1.0155    12.505
BUSMVMAI33 .. 1       7.3724 /_  -30.9    1.0211    12.505        1-2     12.737 /_   -1.0    1.0185
   -          2       7.3316 /_ -151.0    1.0155    12.505        2-3     12.728 /_ -121.2    1.0178
   -          3       7.3237 /_   88.5    1.0144    12.505        3-1     12.688 /_  118.9    1.0146
BUSMVMAI32 .. 1       7.3726 /_  -30.9    1.0211    12.505        1-2     12.737 /_   -1.0    1.0185
   -          2       7.3306 /_ -151.0    1.0153    12.505        2-3     12.727 /_ -121.3    1.0177
   -          3       7.3232 /_   88.5    1.0143    12.505        3-1     12.687 /_  118.9    1.0145
BUSMVMAI37 .. 1       7.3729 /_  -30.9    1.0212    12.505        1-2     12.736 /_   -1.0    1.0185
   -          2       7.3293 /_ -151.0    1.0151    12.505        2-3     12.726 /_ -121.3    1.0176
   -          3       7.3227 /_   88.5    1.0142    12.505        3-1     12.685 /_  118.9    1.0144
BUSMVMAI44 .. 1       7.3724 /_  -30.9    1.0211    12.505        1-2     12.737 /_   -1.0    1.0186
   -          2       7.3319 /_ -150.9    1.0155    12.505        2-3     12.728 /_ -121.2    1.0178
   -          3       7.3238 /_   88.5    1.0144    12.505        3-1     12.688 /_  118.9    1.0146
BUSMVMAI35 .. 1        7.372 /_  -30.9     1.021    12.505        1-2     12.738 /_   -1.0    1.0186
   -          2        7.334 /_ -150.9    1.0158    12.505        2-3      12.73 /_ -121.2    1.0179
   -          3       7.3247 /_   88.5    1.0145    12.505        3-1      12.69 /_  118.9    1.0148
BUSMVMAI36 .. 1        7.372 /_  -30.9     1.021    12.505        1-2     12.738 /_   -1.0    1.0186
   -          2        7.334 /_ -150.9    1.0158    12.505        2-3      12.73 /_ -121.2    1.0179
   -          3       7.3247 /_   88.5    1.0145    12.505        3-1      12.69 /_  118.9    1.0148
BUSMVMAI869 . 1       7.3723 /_  -30.9    1.0211    12.505
BUSMVMAI38 .. 1       7.3731 /_  -30.9    1.0212    12.505        1-2     12.736 /_   -1.0    1.0184
   -          2       7.3283 /_ -151.0     1.015    12.505        2-3     12.725 /_ -121.3    1.0176
   -          3       7.3223 /_   88.4    1.0142    12.505        3-1     12.684 /_  118.9    1.0143
BUSMVMAI2181  1       7.3729 /_  -30.9    1.0212    12.505
BUSMVMAI868 . 1       7.3723 /_  -30.9    1.0211    12.505
BUSMVMAI870 . 1       7.3722 /_  -30.9    1.0211    12.505
BUSMVMAI39 .. 1       7.3731 /_  -30.9    1.0212    12.505        1-2     12.736 /_   -1.0    1.0184
   -          2       7.3283 /_ -151.0     1.015    12.505        2-3     12.725 /_ -121.3    1.0176
   -          3       7.3222 /_   88.4    1.0142    12.505        3-1     12.684 /_  118.9    1.0143
BUSMVMAI40 .. 1       7.3732 /_  -30.9    1.0212    12.505        1-2     12.736 /_   -1.0    1.0184
   -          2       7.3272 /_ -151.0    1.0149    12.505        2-3     12.724 /_ -121.3    1.0175
   -          3       7.3219 /_   88.4    1.0141    12.505        3-1     12.683 /_  118.9    1.0142
BUSMVMAI697 . 1       7.3731 /_  -30.9    1.0212    12.505        1-2     12.736 /_   -1.0    1.0184
   -          2       7.3283 /_ -151.0     1.015    12.505        2-3     12.725 /_ -121.3    1.0176
   -          3       7.3222 /_   88.4    1.0141    12.505        3-1     12.684 /_  118.9    1.0143
BUSMVMAI41 .. 1       7.3734 /_  -30.9    1.0213    12.505        1-2     12.735 /_   -1.1    1.0184
   -          2       7.3261 /_ -151.0    1.0147    12.505        2-3     12.724 /_ -121.3    1.0174
   -          3       7.3214 /_   88.4     1.014    12.505        3-1     12.682 /_  118.9    1.0141
BUSMVMAI42 .. 1       7.3734 /_  -30.9    1.0213    12.505        1-2     12.735 /_   -1.1    1.0184
   -          2       7.3261 /_ -151.0    1.0147    12.505        2-3     12.724 /_ -121.3    1.0174
   -          3       7.3214 /_   88.4     1.014    12.505        3-1     12.682 /_  118.9    1.0141
BUSMVMAI48 .. 1       7.3736 /_  -30.9    1.0213    12.505        1-2     12.735 /_   -1.1    1.0183
   -          2       7.3251 /_ -151.0    1.0146    12.505        2-3     12.723 /_ -121.3    1.0174
   -          3        7.321 /_   88.4     1.014    12.505        3-1     12.681 /_  118.9    1.0141
BUSMVMAI303 . 1       7.3735 /_  -30.9    1.0213    12.505        1-2     12.735 /_   -1.1    1.0183
   -          2       7.3256 /_ -151.0    1.0146    12.505        2-3     12.723 /_ -121.3    1.0174
   -          3       7.3212 /_   88.4     1.014    12.505        3-1     12.682 /_  118.9    1.0141
BUSMVMAI45 .. 1       7.3734 /_  -30.9    1.0213    12.505        1-2     12.735 /_   -1.1    1.0184
   -          2       7.3261 /_ -151.0    1.0147    12.505        2-3     12.724 /_ -121.3    1.0174
   -          3       7.3214 /_   88.4     1.014    12.505        3-1     12.682 /_  118.9    1.0141
BUSMVMAI701 . 1       7.3734 /_  -30.9    1.0213    12.505        1-2     12.735 /_   -1.1    1.0184
   -          2       7.3261 /_ -151.0    1.0147    12.505        2-3     12.724 /_ -121.3    1.0174
   -          3       7.3214 /_   88.4     1.014    12.505        3-1     12.682 /_  118.9    1.0141
BUSMVMAI47 .. 1       7.3714 /_  -30.8     1.021    12.505        1-2     12.747 /_   -0.9    1.0193
   -          2       7.3467 /_ -150.8    1.0175    12.505        2-3     12.741 /_ -121.1    1.0188
   -          3       7.3326 /_   88.7    1.0156    12.505        3-1     12.705 /_  119.0     1.016
BUSMVMAI179 . 1       7.3713 /_  -30.8     1.021    12.505        1-2     12.746 /_   -0.9    1.0193
   -          2       7.3465 /_ -150.8    1.0175    12.505        2-3     12.741 /_ -121.1    1.0188
   -          3       7.3324 /_   88.7    1.0156    12.505        3-1     12.705 /_  119.0    1.0159
BUSMVMAI160 . 1       7.3714 /_  -30.8     1.021    12.505        1-2     12.748 /_   -0.9    1.0194
   -          2       7.3476 /_ -150.8    1.0177    12.505        2-3     12.742 /_ -121.1    1.0189
   -          3       7.3335 /_   88.7    1.0157    12.505        3-1     12.707 /_  119.0    1.0161
BUSMVMAI1103  1       7.3736 /_  -30.9    1.0213    12.505
BUSMVMAI259 . 1       7.3737 /_  -30.9    1.0213    12.505        1-2     12.735 /_   -1.1    1.0183
   -          2       7.3246 /_ -151.0    1.0145    12.505        2-3     12.722 /_ -121.3    1.0174
   -          3       7.3209 /_   88.4     1.014    12.505        3-1     12.681 /_  118.9     1.014
BUSMVMAI304 . 1       7.3736 /_  -30.9    1.0213    12.505        1-2     12.735 /_   -1.1    1.0183
   -          2       7.3251 /_ -151.0    1.0146    12.505        2-3     12.723 /_ -121.3    1.0174
   -          3        7.321 /_   88.4     1.014    12.505        3-1     12.681 /_  118.9    1.0141
BUSMVMAI702 . 1       7.3718 /_  -30.9     1.021    12.505        1-2     12.739 /_   -1.0    1.0187
   -          2       7.3354 /_ -150.9     1.016    12.505        2-3     12.731 /_ -121.2     1.018
   -          3       7.3253 /_   88.5    1.0146    12.505        3-1     12.691 /_  118.9    1.0149
BUSMVMAI58 .. 1       7.3698 /_  -30.9    1.0207    12.505        1-2     12.742 /_   -0.9    1.0189
   -          2       7.3433 /_ -150.9    1.0171    12.505        2-3     12.736 /_ -121.1    1.0185
   -          3       7.3285 /_   88.7     1.015    12.505        3-1     12.699 /_  119.0    1.0155
BUSMVMAI57 .. 1        7.369 /_  -30.9    1.0206    12.505        1-2     12.741 /_   -0.9    1.0188
   -          2       7.3433 /_ -150.9    1.0171    12.505        2-3     12.736 /_ -121.1    1.0184
   -          3       7.3278 /_   88.6    1.0149    12.505        3-1     12.698 /_  119.0    1.0154
BUSMVMAI60 .. 1       7.3687 /_  -30.9    1.0206    12.505        1-2      12.74 /_   -0.9    1.0188
   -          2       7.3433 /_ -150.9    1.0171    12.505        2-3     12.736 /_ -121.1    1.0184
   -          3       7.3275 /_   88.6    1.0149    12.505        3-1     12.697 /_  119.0    1.0154
BUSMVMAI703 . 1        7.369 /_  -30.9    1.0206    12.505        1-2     12.741 /_   -0.9    1.0188
   -          2       7.3433 /_ -150.9    1.0171    12.505        2-3     12.736 /_ -121.1    1.0184
   -          3       7.3278 /_   88.6    1.0149    12.505        3-1     12.698 /_  119.0    1.0154
BUSMVMAI123 . 1         7.37 /_  -30.9    1.0208    12.505        1-2     12.742 /_   -0.9    1.0189
   -          2       7.3433 /_ -150.9    1.0171    12.505        2-3     12.737 /_ -121.1    1.0185
   -          3       7.3286 /_   88.7     1.015    12.505        3-1     12.699 /_  119.0    1.0155
BUSMVMAI59 .. 1       7.3682 /_  -30.9    1.0205    12.505        1-2      12.74 /_   -0.9    1.0187
   -          2       7.3433 /_ -150.9    1.0171    12.505        2-3     12.735 /_ -121.1    1.0184
   -          3       7.3272 /_   88.6    1.0148    12.505        3-1     12.697 /_  119.0    1.0153
BUSMVMAI61 .. 1       7.3674 /_  -30.9    1.0204    12.505        1-2     12.739 /_   -0.9    1.0186
   -          2       7.3434 /_ -150.9    1.0171    12.505        2-3     12.735 /_ -121.2    1.0183
   -          3       7.3267 /_   88.6    1.0148    12.505        3-1     12.696 /_  119.0    1.0153
BUSMVMAI63 .. 1       7.3687 /_  -30.9    1.0206    12.505        1-2      12.74 /_   -0.9    1.0188
   -          2       7.3433 /_ -150.9    1.0171    12.505        2-3     12.736 /_ -121.1    1.0184
   -          3       7.3275 /_   88.6    1.0149    12.505        3-1     12.697 /_  119.0    1.0154
BUSMVMAI874 . 3       7.3275 /_   88.6    1.0149    12.505
BUSMVMAI62 .. 1       7.3665 /_  -30.9    1.0203    12.505        1-2     12.738 /_   -0.9    1.0186
   -          2       7.3434 /_ -150.9    1.0171    12.505        2-3     12.734 /_ -121.2    1.0183
   -          3       7.3262 /_   88.6    1.0147    12.505        3-1     12.695 /_  119.0    1.0152
BUSMVMAI64 .. 1       7.3656 /_  -30.9    1.0202    12.505        1-2     12.737 /_   -0.9    1.0185
   -          2       7.3434 /_ -150.9    1.0171    12.505        2-3     12.734 /_ -121.2    1.0183
   -          3       7.3258 /_   88.6    1.0146    12.505        3-1     12.695 /_  119.0    1.0151
BUSMVMAI942 . 3       7.3262 /_   88.6    1.0147    12.505
BUSMVMAI873 . 3       7.3262 /_   88.6    1.0147    12.505
BUSMVMAI872 . 3        7.326 /_   88.6    1.0147    12.505
BUSMVMAI880 . 3        7.326 /_   88.6    1.0147    12.505
BUSMVMAI945 . 3       7.3275 /_   88.6    1.0149    12.505
BUSMVMAI65 .. 1       7.3647 /_  -30.9      1.02    12.505        1-2     12.736 /_   -0.9    1.0184
   -          2       7.3434 /_ -150.9    1.0171    12.505        2-3     12.733 /_ -121.2    1.0182
   -          3       7.3253 /_   88.6    1.0146    12.505        3-1     12.694 /_  119.0    1.0151
BUSMVMAI66 .. 1       7.3638 /_  -30.9    1.0199    12.505        1-2     12.734 /_   -0.9    1.0183
   -          2       7.3435 /_ -150.9    1.0171    12.505        2-3     12.733 /_ -121.2    1.0182
   -          3       7.3249 /_   88.6    1.0145    12.505        3-1     12.693 /_  119.0     1.015
BUSMVMAI67 .. 1       7.3627 /_  -30.9    1.0198    12.505        1-2     12.733 /_   -1.0    1.0182
   -          2       7.3435 /_ -150.9    1.0171    12.505        2-3     12.732 /_ -121.2    1.0181
   -          3       7.3244 /_   88.7    1.0145    12.505        3-1     12.692 /_  118.9     1.015
BUSMVMAI878 . 1       7.3627 /_  -30.9    1.0198    12.505
BUSMVMAI68 .. 1        7.362 /_  -30.9    1.0197    12.505        1-2     12.732 /_   -1.0    1.0182
   -          2       7.3435 /_ -150.9    1.0171    12.505        2-3     12.732 /_ -121.2    1.0181
   -          3       7.3241 /_   88.7    1.0144    12.505        3-1     12.692 /_  118.9    1.0149
BUSMVMAI706 . 1       7.3627 /_  -30.9    1.0198    12.505        1-2     12.733 /_   -1.0    1.0182
   -          2       7.3435 /_ -150.9    1.0171    12.505        2-3     12.732 /_ -121.2    1.0181
   -          3       7.3244 /_   88.7    1.0145    12.505        3-1     12.692 /_  118.9     1.015
BUSMVMAI876 . 3       7.3274 /_   88.6    1.0149    12.505
BUSMVMAI875 . 3       7.3273 /_   88.6    1.0149    12.505
BUSMVMAI877 . 3       7.3272 /_   88.6    1.0149    12.505
BUSMVMAI883 . 3       7.3271 /_   88.6    1.0148    12.505
BUSMVMAI884 . 3       7.3272 /_   88.6    1.0149    12.505
BUSMVMAI886 . 3       7.3272 /_   88.6    1.0149    12.505
BUSMVMAI885 . 1       7.3626 /_  -30.9    1.0197    12.505
BUSMVMAI879 . 3       7.3257 /_   88.6    1.0146    12.505
BUSMVMAI881 . 3       7.3257 /_   88.6    1.0146    12.505
BUSMVMAI888 . 3       7.3257 /_   88.6    1.0146    12.505
BUSMVMAI882 . 3       7.3256 /_   88.6    1.0146    12.505
BUSMVMAI944 . 3       7.3256 /_   88.6    1.0146    12.505
BUSMVMAI889 . 3        7.327 /_   88.6    1.0148    12.505
BUSMVMAI2183  3       7.3272 /_   88.6    1.0149    12.505
BUSMVMAI2184  3       7.3272 /_   88.6    1.0149    12.505
BUSMVMAI71 .. 1       7.3613 /_  -30.9    1.0196    12.505        1-2     12.732 /_   -1.0    1.0181
   -          2       7.3434 /_ -150.9    1.0171    12.505        2-3     12.731 /_ -121.2    1.0181
   -          3       7.3237 /_   88.7    1.0144    12.505        3-1     12.691 /_  118.9    1.0149
BUSMVMAI2182  1       7.3626 /_  -30.9    1.0197    12.505
BUSMVMAI2185  1       7.3626 /_  -30.9    1.0197    12.505
BUSMVMAI2186  1       7.3625 /_  -30.9    1.0197    12.505
BUSMVMAI887 . 3       7.3272 /_   88.6    1.0149    12.505
BUSMVMAI892 . 3       7.3272 /_   88.6    1.0148    12.505
BUSMVMAI897 . 3       7.3256 /_   88.6    1.0146    12.505
BUSMVMAI890 . 3       7.3269 /_   88.6    1.0148    12.505
BUSMVMAI891 . 3       7.3269 /_   88.6    1.0148    12.505
BUSMVMAI896 . 3       7.3268 /_   88.6    1.0148    12.505
BUSMVMAI893 . 3       7.3272 /_   88.6    1.0148    12.505
BUSMVMAI894 . 3       7.3272 /_   88.6    1.0148    12.505
BUSMVMAI895 . 3       7.3272 /_   88.6    1.0148    12.505
BUSMVMAI898 . 3       7.3272 /_   88.6    1.0148    12.505
BUSMVMAI70 .. 1       7.3627 /_  -30.9    1.0198    12.505        1-2     12.733 /_   -1.0    1.0182
   -          2       7.3435 /_ -150.9    1.0171    12.505        2-3     12.732 /_ -121.2    1.0181
   -          3       7.3244 /_   88.7    1.0145    12.505        3-1     12.692 /_  118.9     1.015
BUSMVMAI69 .. 1       7.3627 /_  -30.9    1.0198    12.505        1-2     12.733 /_   -1.0    1.0182
   -          2       7.3435 /_ -150.9    1.0171    12.505        2-3     12.732 /_ -121.2    1.0181
   -          3       7.3244 /_   88.7    1.0145    12.505        3-1     12.692 /_  118.9     1.015
BUSMVMAI708 . 1       7.3627 /_  -30.9    1.0198    12.505        1-2     12.733 /_   -1.0    1.0182
   -          2       7.3435 /_ -150.9    1.0171    12.505        2-3     12.732 /_ -121.2    1.0181
   -          3       7.3244 /_   88.7    1.0145    12.505        3-1     12.692 /_  118.9     1.015
BUSMVMAI72 .. 1       7.3603 /_  -30.9    1.0194    12.505        1-2      12.73 /_   -1.0     1.018
   -          2       7.3434 /_ -150.9    1.0171    12.505        2-3     12.731 /_ -121.2     1.018
   -          3       7.3233 /_   88.7    1.0143    12.505        3-1      12.69 /_  118.9    1.0148
BUSMVMAI73 .. 1       7.3594 /_  -31.0    1.0193    12.505        1-2     12.729 /_   -1.0    1.0179
   -          2       7.3434 /_ -150.9    1.0171    12.505        2-3      12.73 /_ -121.2     1.018
   -          3       7.3229 /_   88.7    1.0143    12.505        3-1      12.69 /_  118.9    1.0147
BUSMVMAI134 . 1       7.3603 /_  -30.9    1.0194    12.505        1-2      12.73 /_   -1.0     1.018
   -          2       7.3434 /_ -150.9    1.0171    12.505        2-3     12.731 /_ -121.2     1.018
   -          3       7.3233 /_   88.7    1.0143    12.505        3-1      12.69 /_  118.9    1.0148
BUSMVMAI900 . 3       7.3256 /_   88.6    1.0146    12.505
BUSMVMAI904 . 3       7.3272 /_   88.6    1.0148    12.505
BUSMVMAI75 .. 1       7.3589 /_  -31.0    1.0192    12.505        1-2     12.729 /_   -1.0    1.0179
   -          2       7.3434 /_ -150.9    1.0171    12.505        2-3      12.73 /_ -121.2     1.018
   -          3       7.3227 /_   88.7    1.0142    12.505        3-1     12.689 /_  118.9    1.0147
BUSMVMAI718 . 1       7.3594 /_  -31.0    1.0193    12.505        1-2     12.729 /_   -1.0    1.0179
   -          2       7.3434 /_ -150.9    1.0171    12.505        2-3      12.73 /_ -121.2     1.018
   -          3       7.3229 /_   88.7    1.0143    12.505        3-1      12.69 /_  118.9    1.0147
BUSMVMAI899 . 3       7.3256 /_   88.6    1.0146    12.505
BUSMVMAI902 . 3       7.3255 /_   88.6    1.0146    12.505
BUSMVMAI901 . 3       7.3255 /_   88.6    1.0146    12.505
BUSMVMAI903 . 3       7.3255 /_   88.6    1.0146    12.505
BUSMVMAI905 . 3       7.3254 /_   88.6    1.0146    12.505
BUSMVMAI907 . 3       7.3255 /_   88.6    1.0146    12.505
BUSMVMAI906 . 3       7.3254 /_   88.6    1.0146    12.505
BUSMVMAI946 . 3       7.3254 /_   88.6    1.0146    12.505
BUSMVMAI74 .. 1       7.3589 /_  -31.0    1.0192    12.505        1-2     12.729 /_   -1.0    1.0179
   -          2       7.3434 /_ -150.9    1.0171    12.505        2-3      12.73 /_ -121.2     1.018
   -          3       7.3227 /_   88.7    1.0142    12.505        3-1     12.689 /_  118.9    1.0147
BUSMVMAI76 .. 1       7.3589 /_  -31.0    1.0192    12.505        1-2     12.729 /_   -1.0    1.0179
   -          2       7.3435 /_ -150.9    1.0171    12.505        2-3      12.73 /_ -121.2     1.018
   -          3       7.3227 /_   88.7    1.0142    12.505        3-1     12.689 /_  118.9    1.0147
BUSMVMAI77 .. 1       7.3587 /_  -31.0    1.0192    12.505        1-2     12.729 /_   -1.0    1.0178
   -          2       7.3434 /_ -150.9    1.0171    12.505        2-3      12.73 /_ -121.2    1.0179
   -          3       7.3226 /_   88.7    1.0142    12.505        3-1     12.689 /_  118.9    1.0147
BUSMVMAI79 .. 1       7.3589 /_  -31.0    1.0192    12.505        1-2     12.729 /_   -1.0    1.0179
   -          2       7.3435 /_ -150.9    1.0171    12.505        2-3      12.73 /_ -121.2     1.018
   -          3       7.3227 /_   88.7    1.0142    12.505        3-1     12.689 /_  118.9    1.0147
BUSMVMAI81 .. 1       7.3587 /_  -31.0    1.0192    12.505        1-2     12.729 /_   -1.0    1.0178
   -          2       7.3433 /_ -150.9    1.0171    12.505        2-3      12.73 /_ -121.2    1.0179
   -          3       7.3226 /_   88.7    1.0142    12.505        3-1     12.689 /_  118.9    1.0147
BUSMVMAI91 .. 1        7.358 /_  -31.0    1.0191    12.505        1-2     12.728 /_   -1.0    1.0178
   -          2       7.3434 /_ -150.9    1.0171    12.505        2-3     12.729 /_ -121.2    1.0179
   -          3       7.3223 /_   88.7    1.0142    12.505        3-1     12.689 /_  118.9    1.0147
BUSMVMAI78 .. 1       7.3587 /_  -31.0    1.0192    12.505        1-2     12.729 /_   -1.0    1.0179
   -          2       7.3436 /_ -150.9    1.0171    12.505        2-3      12.73 /_ -121.2     1.018
   -          3       7.3226 /_   88.7    1.0142    12.505        3-1     12.689 /_  118.9    1.0147
BUSMVMAI80 .. 1       7.3586 /_  -31.0    1.0192    12.505        1-2     12.729 /_   -1.0    1.0178
   -          2       7.3437 /_ -150.9    1.0171    12.505        2-3      12.73 /_ -121.2     1.018
   -          3       7.3225 /_   88.7    1.0142    12.505        3-1     12.689 /_  118.9    1.0147
BUSMVMAI908 . 1       7.3585 /_  -31.0    1.0192    12.505
BUSMVMAI89 .. 1       7.3585 /_  -31.0    1.0192    12.505        1-2     12.728 /_   -1.0    1.0178
   -          2       7.3437 /_ -150.9    1.0171    12.505        2-3      12.73 /_ -121.2     1.018
   -          3       7.3225 /_   88.7    1.0142    12.505        3-1     12.689 /_  118.9    1.0147
BUSMVMAI949 . 3       7.3255 /_   88.6    1.0146    12.505
BUSMVMAI82 .. 1       7.3587 /_  -31.0    1.0192    12.505        1-2     12.729 /_   -1.0    1.0178
   -          2       7.3433 /_ -150.9    1.0171    12.505        2-3      12.73 /_ -121.2    1.0179
   -          3       7.3226 /_   88.7    1.0142    12.505        3-1     12.689 /_  118.9    1.0147
BUSMVMAI83 .. 1       7.3587 /_  -31.0    1.0192    12.505        1-2     12.729 /_   -1.0    1.0178
   -          2       7.3433 /_ -150.9    1.0171    12.505        2-3      12.73 /_ -121.2    1.0179
   -          3       7.3226 /_   88.7    1.0142    12.505        3-1     12.689 /_  118.9    1.0147
BUSMVMAI86 .. 1       7.3587 /_  -31.0    1.0192    12.505        1-2     12.729 /_   -1.0    1.0178
   -          2       7.3432 /_ -150.9    1.0171    12.505        2-3      12.73 /_ -121.2    1.0179
   -          3       7.3226 /_   88.7    1.0142    12.505        3-1     12.689 /_  118.9    1.0147
BUSMVMAI85 .. 1       7.3594 /_  -31.0    1.0193    12.505        1-2     12.729 /_   -1.0    1.0179
   -          2       7.3433 /_ -150.9    1.0171    12.505        2-3      12.73 /_ -121.2     1.018
   -          3       7.3229 /_   88.7    1.0142    12.505        3-1      12.69 /_  118.9    1.0147
BUSMVMAI84 .. 1       7.3593 /_  -31.0    1.0193    12.505        1-2     12.729 /_   -1.0    1.0179
   -          2       7.3432 /_ -150.9    1.0171    12.505        2-3      12.73 /_ -121.2     1.018
   -          3       7.3229 /_   88.7    1.0142    12.505        3-1      12.69 /_  118.9    1.0147
BUSMVMAI93 .. 1       7.3593 /_  -31.0    1.0193    12.505        1-2     12.729 /_   -1.0    1.0179
   -          2       7.3432 /_ -150.9    1.0171    12.505        2-3      12.73 /_ -121.2     1.018
   -          3       7.3229 /_   88.7    1.0142    12.505        3-1      12.69 /_  118.9    1.0147
BUSMVMAI2198  2       7.3432 /_ -150.9    1.0171    12.505
BUSMVMAI709 . 1       7.3594 /_  -31.0    1.0193    12.505        1-2     12.729 /_   -1.0    1.0179
   -          2       7.3434 /_ -150.9    1.0171    12.505        2-3      12.73 /_ -121.2     1.018
   -          3       7.3229 /_   88.7    1.0143    12.505        3-1      12.69 /_  118.9    1.0147
BUSMVMAI88 .. 1       7.3587 /_  -31.0    1.0192    12.505        1-2     12.729 /_   -1.0    1.0178
   -          2       7.3432 /_ -150.9    1.0171    12.505        2-3      12.73 /_ -121.2    1.0179
   -          3       7.3226 /_   88.7    1.0142    12.505        3-1     12.689 /_  118.9    1.0147
BUSMVMAI87 .. 1       7.3587 /_  -31.0    1.0192    12.505        1-2     12.729 /_   -1.0    1.0178
   -          2       7.3432 /_ -150.9    1.0171    12.505        2-3      12.73 /_ -121.2    1.0179
   -          3       7.3226 /_   88.7    1.0142    12.505        3-1     12.689 /_  118.9    1.0147
BUSMVMAI99 .. 1       7.3587 /_  -31.0    1.0192    12.505        1-2     12.729 /_   -1.0    1.0178
   -          2       7.3432 /_ -150.9    1.0171    12.505        2-3      12.73 /_ -121.2    1.0179
   -          3       7.3226 /_   88.7    1.0142    12.505        3-1     12.689 /_  118.9    1.0147
BUSMVMAI722 . 1       7.3587 /_  -31.0    1.0192    12.505        1-2     12.729 /_   -1.0    1.0178
   -          2       7.3432 /_ -150.9    1.0171    12.505        2-3      12.73 /_ -121.2    1.0179
   -          3       7.3226 /_   88.7    1.0142    12.505        3-1     12.689 /_  118.9    1.0147
BUSMVMAI909 . 1       7.3584 /_  -31.0    1.0192    12.505
BUSMVMAI90 .. 1       7.3585 /_  -31.0    1.0192    12.505        1-2     12.728 /_   -1.0    1.0178
   -          2       7.3437 /_ -150.9    1.0171    12.505        2-3      12.73 /_ -121.2     1.018
   -          3       7.3224 /_   88.7    1.0142    12.505        3-1     12.689 /_  118.9    1.0147
BUSMVMAI102 . 1       7.3584 /_  -31.0    1.0192    12.505        1-2     12.728 /_   -1.0    1.0178
   -          2       7.3438 /_ -150.9    1.0171    12.505        2-3      12.73 /_ -121.2     1.018
   -          3       7.3224 /_   88.7    1.0142    12.505        3-1     12.689 /_  118.9    1.0147
BUSMVMAI92 .. 1       7.3575 /_  -31.0     1.019    12.505        1-2     12.727 /_   -1.0    1.0177
   -          2       7.3434 /_ -150.9    1.0171    12.505        2-3     12.729 /_ -121.2    1.0179
   -          3        7.322 /_   88.7    1.0141    12.505        3-1     12.688 /_  118.9    1.0146
BUSMVMAI132 . 1        7.358 /_  -31.0    1.0191    12.505        1-2     12.728 /_   -1.0    1.0178
   -          2       7.3434 /_ -150.9    1.0171    12.505        2-3     12.729 /_ -121.2    1.0179
   -          3       7.3223 /_   88.7    1.0142    12.505        3-1     12.689 /_  118.9    1.0147
BUSMVMAI98 .. 1       7.3575 /_  -31.0     1.019    12.505        1-2     12.727 /_   -1.0    1.0177
   -          2       7.3434 /_ -150.9    1.0171    12.505        2-3     12.729 /_ -121.2    1.0179
   -          3        7.322 /_   88.7    1.0141    12.505        3-1     12.688 /_  118.9    1.0146
BUSMVMAI100 . 1       7.3568 /_  -31.0    1.0189    12.505        1-2     12.726 /_   -1.0    1.0177
   -          2       7.3434 /_ -150.9    1.0171    12.505        2-3     12.729 /_ -121.2    1.0179
   -          3       7.3217 /_   88.7    1.0141    12.505        3-1     12.688 /_  118.9    1.0146
BUSMVMAI723 . 1       7.3575 /_  -31.0     1.019    12.505        1-2     12.727 /_   -1.0    1.0177
   -          2       7.3434 /_ -150.9    1.0171    12.505        2-3     12.729 /_ -121.2    1.0179
   -          3        7.322 /_   88.7    1.0141    12.505        3-1     12.688 /_  118.9    1.0146
BUSMVMAI96 .. 1       7.3593 /_  -31.0    1.0193    12.505        1-2     12.729 /_   -1.0    1.0179
   -          2       7.3432 /_ -150.9    1.0171    12.505        2-3      12.73 /_ -121.2     1.018
   -          3       7.3229 /_   88.7    1.0142    12.505        3-1      12.69 /_  118.9    1.0147
BUSMVMAI916 . 1       7.3593 /_  -31.0    1.0193    12.505
BUSMVMAI95 .. 1       7.3575 /_  -31.0     1.019    12.505        1-2     12.727 /_   -1.0    1.0177
   -          2       7.3433 /_ -150.9    1.0171    12.505        2-3     12.729 /_ -121.2    1.0179
   -          3       7.3221 /_   88.7    1.0141    12.505        3-1     12.688 /_  118.9    1.0146
BUSMVMAI94 .. 1       7.3575 /_  -31.0     1.019    12.505        1-2     12.727 /_   -1.0    1.0177
   -          2       7.3433 /_ -150.9    1.0171    12.505        2-3     12.729 /_ -121.2    1.0179
   -          3       7.3221 /_   88.7    1.0141    12.505        3-1     12.688 /_  118.9    1.0146
BUSMVMAI112 . 1       7.3575 /_  -31.0     1.019    12.505        1-2     12.727 /_   -1.0    1.0177
   -          2       7.3433 /_ -150.9    1.0171    12.505        2-3     12.729 /_ -121.2    1.0179
   -          3       7.3221 /_   88.7    1.0141    12.505        3-1     12.688 /_  118.9    1.0146
BUSMVMAI126 . 1       7.3575 /_  -31.0     1.019    12.505        1-2     12.727 /_   -1.0    1.0177
   -          2       7.3433 /_ -150.9    1.0171    12.505        2-3     12.729 /_ -121.2    1.0179
   -          3       7.3221 /_   88.7    1.0141    12.505        3-1     12.688 /_  118.9    1.0146
BUSMVMAI97 .. 1       7.3592 /_  -31.0    1.0193    12.505        1-2     12.729 /_   -1.0    1.0179
   -          2       7.3431 /_ -150.9    1.0171    12.505        2-3      12.73 /_ -121.2     1.018
   -          3       7.3229 /_   88.7    1.0142    12.505        3-1     12.689 /_  118.9    1.0147
BUSMVMAI711 . 1       7.3593 /_  -31.0    1.0193    12.505        1-2     12.729 /_   -1.0    1.0179
   -          2       7.3432 /_ -150.9    1.0171    12.505        2-3      12.73 /_ -121.2     1.018
   -          3       7.3229 /_   88.7    1.0142    12.505        3-1      12.69 /_  118.9    1.0147
BUSMVMAI915 . 1       7.3592 /_  -31.0    1.0193    12.505
BUSMVMAI104 . 1       7.3592 /_  -31.0    1.0193    12.505        1-2     12.729 /_   -1.0    1.0179
   -          2        7.343 /_ -150.9     1.017    12.505        2-3      12.73 /_ -121.2     1.018
   -          3       7.3229 /_   88.7    1.0142    12.505        3-1     12.689 /_  118.9    1.0147
BUSMVMAI133 . 1       7.3575 /_  -31.0     1.019    12.505        1-2     12.727 /_   -1.0    1.0177
   -          2       7.3434 /_ -150.9    1.0171    12.505        2-3     12.729 /_ -121.2    1.0179
   -          3        7.322 /_   88.7    1.0141    12.505        3-1     12.688 /_  118.9    1.0146
BUSMVMAI135 . 1       7.3575 /_  -31.0     1.019    12.505        1-2     12.727 /_   -1.0    1.0177
   -          2       7.3434 /_ -150.9    1.0171    12.505        2-3     12.729 /_ -121.2    1.0179
   -          3        7.322 /_   88.7    1.0141    12.505        3-1     12.688 /_  118.9    1.0146
BUSMVMAI713 . 1       7.3575 /_  -31.0     1.019    12.505        1-2     12.727 /_   -1.0    1.0177
   -          2       7.3434 /_ -150.9    1.0171    12.505        2-3     12.729 /_ -121.2    1.0179
   -          3        7.322 /_   88.7    1.0141    12.505        3-1     12.688 /_  118.9    1.0146
BUSMVMAI2196  2       7.3432 /_ -150.9    1.0171    12.505
BUSMVMAI911 . 1       7.3584 /_  -31.0    1.0192    12.505
BUSMVMAI910 . 1       7.3584 /_  -31.0    1.0192    12.505
BUSMVMAI913 . 1       7.3584 /_  -31.0    1.0192    12.505
BUSMVMAI918 . 1       7.3584 /_  -31.0    1.0192    12.505
BUSMVMAI919 . 1       7.3584 /_  -31.0    1.0192    12.505
BUSMVMAI105 . 1       7.3566 /_  -31.0    1.0189    12.505        1-2     12.726 /_   -1.0    1.0177
   -          2       7.3434 /_ -150.9    1.0171    12.505        2-3     12.729 /_ -121.2    1.0179
   -          3       7.3216 /_   88.7    1.0141    12.505        3-1     12.687 /_  118.9    1.0146
BUSMVMAI107 . 1       7.3568 /_  -31.0    1.0189    12.505        1-2     12.726 /_   -1.0    1.0177
   -          2       7.3434 /_ -150.9    1.0171    12.505        2-3     12.729 /_ -121.2    1.0179
   -          3       7.3217 /_   88.7    1.0141    12.505        3-1     12.688 /_  118.9    1.0146
BUSMVMAI181 . 1       7.3567 /_  -31.0    1.0189    12.505        1-2     12.726 /_   -1.0    1.0177
   -          2       7.3434 /_ -150.9    1.0171    12.505        2-3     12.729 /_ -121.2    1.0179
   -          3       7.3216 /_   88.7    1.0141    12.505        3-1     12.688 /_  118.9    1.0146
BUSMVMAI101 . 1       7.3584 /_  -31.0    1.0192    12.505        1-2     12.728 /_   -1.0    1.0178
   -          2       7.3438 /_ -150.9    1.0171    12.505        2-3      12.73 /_ -121.2     1.018
   -          3       7.3224 /_   88.7    1.0142    12.505        3-1     12.689 /_  118.9    1.0147
BUSMVMAI124 . 1       7.3585 /_  -31.0    1.0192    12.505        1-2     12.728 /_   -1.0    1.0178
   -          2       7.3438 /_ -150.9    1.0171    12.505        2-3      12.73 /_ -121.2     1.018
   -          3       7.3223 /_   88.7    1.0142    12.505        3-1     12.689 /_  118.9    1.0147
BUSMVMAI912 . 1       7.3584 /_  -31.0    1.0192    12.505
BUSMVMAI914 . 1       7.3584 /_  -31.0    1.0192    12.505
BUSMVMAI103 . 1       7.3592 /_  -31.0    1.0193    12.505        1-2     12.729 /_   -1.0    1.0179
   -          2        7.343 /_ -150.9     1.017    12.505        2-3      12.73 /_ -121.2    1.0179
   -          3       7.3229 /_   88.7    1.0142    12.505        3-1     12.689 /_  118.9    1.0147
BUSMVMAI917 . 2        7.343 /_ -150.9     1.017    12.505
BUSMVMAI106 . 1       7.3592 /_  -31.0    1.0193    12.505        1-2     12.729 /_   -1.0    1.0179
   -          2        7.343 /_ -150.9     1.017    12.505        2-3      12.73 /_ -121.2     1.018
   -          3       7.3229 /_   88.7    1.0142    12.505        3-1     12.689 /_  118.9    1.0147
BUSMVMAI108 . 1       7.3592 /_  -31.0    1.0193    12.505        1-2     12.729 /_   -1.0    1.0179
   -          2        7.343 /_ -150.9     1.017    12.505        2-3      12.73 /_ -121.2    1.0179
   -          3       7.3228 /_   88.7    1.0142    12.505        3-1     12.689 /_  118.9    1.0147
BUSMVMAI929 . 1       7.3584 /_  -31.0    1.0192    12.505
BUSMVMAI184 . 1       7.3559 /_  -31.0    1.0188    12.505        1-2     12.725 /_   -1.0    1.0176
   -          2       7.3435 /_ -150.9    1.0171    12.505        2-3     12.728 /_ -121.2    1.0178
   -          3       7.3213 /_   88.7     1.014    12.505        3-1     12.687 /_  118.9    1.0145
BUSMVMAI248 . 1       7.3566 /_  -31.0    1.0189    12.505        1-2     12.726 /_   -1.0    1.0177
   -          2       7.3434 /_ -150.9    1.0171    12.505        2-3     12.729 /_ -121.2    1.0179
   -          3       7.3216 /_   88.7    1.0141    12.505        3-1     12.687 /_  118.9    1.0146
BUSMVMAI931 . 1       7.3583 /_  -31.0    1.0192    12.505
BUSMVMAI947 . 1       7.3593 /_  -31.0    1.0193    12.505
BUSMVMAI716 . 1       7.3568 /_  -31.0    1.0189    12.505        1-2     12.726 /_   -1.0    1.0177
   -          2       7.3434 /_ -150.9    1.0171    12.505        2-3     12.729 /_ -121.2    1.0179
   -          3       7.3217 /_   88.7    1.0141    12.505        3-1     12.688 /_  118.9    1.0146
BUSMVMAI932 . 2        7.343 /_ -150.9     1.017    12.505
BUSMVMAI927 . 1       7.3583 /_  -31.0    1.0192    12.505
BUSMVMAI110 . 1       7.3591 /_  -31.0    1.0193    12.505        1-2     12.729 /_   -1.0    1.0179
   -          2        7.343 /_ -150.9     1.017    12.505        2-3      12.73 /_ -121.2    1.0179
   -          3       7.3228 /_   88.7    1.0142    12.505        3-1     12.689 /_  118.9    1.0147
BUSMVMAI109 . 1       7.3592 /_  -31.0    1.0193    12.505        1-2     12.729 /_   -1.0    1.0179
   -          2        7.343 /_ -150.9     1.017    12.505        2-3      12.73 /_ -121.2    1.0179
   -          3       7.3228 /_   88.7    1.0142    12.505        3-1     12.689 /_  118.9    1.0147
BUSMVMAI113 . 1       7.3592 /_  -31.0    1.0193    12.505        1-2     12.729 /_   -1.0    1.0179
   -          2       7.3429 /_ -150.9     1.017    12.505        2-3      12.73 /_ -121.2    1.0179
   -          3       7.3228 /_   88.6    1.0142    12.505        3-1     12.689 /_  118.9    1.0147
BUSMVMAI920 . 1       7.3591 /_  -31.0    1.0193    12.505
BUSMVMAI928 . 1       7.3591 /_  -31.0    1.0193    12.505
BUSMVMAI111 . 1       7.3575 /_  -31.0     1.019    12.505        1-2     12.727 /_   -1.0    1.0177
   -          2       7.3433 /_ -150.9    1.0171    12.505        2-3     12.729 /_ -121.2    1.0179
   -          3        7.322 /_   88.7    1.0141    12.505        3-1     12.688 /_  118.9    1.0146
BUSMVMAI118 . 1       7.3575 /_  -31.0     1.019    12.505        1-2     12.727 /_   -1.0    1.0177
   -          2       7.3433 /_ -150.9    1.0171    12.505        2-3     12.729 /_ -121.2    1.0179
   -          3        7.322 /_   88.7    1.0141    12.505        3-1     12.688 /_  118.9    1.0146
BUSMVMAI948 . 3        7.322 /_   88.7    1.0141    12.505
BUSMVMAI120 . 1       7.3575 /_  -31.0     1.019    12.505        1-2     12.727 /_   -1.0    1.0177
   -          2       7.3433 /_ -150.9    1.0171    12.505        2-3     12.729 /_ -121.2    1.0179
   -          3       7.3221 /_   88.7    1.0141    12.505        3-1     12.688 /_  118.9    1.0146
BUSMVMAI121 . 1       7.3575 /_  -31.0     1.019    12.505        1-2     12.727 /_   -1.0    1.0177
   -          2       7.3433 /_ -150.9    1.0171    12.505        2-3     12.729 /_ -121.2    1.0179
   -          3       7.3221 /_   88.7    1.0141    12.505        3-1     12.688 /_  118.9    1.0146
BUSMVMAI114 . 1       7.3592 /_  -31.0    1.0193    12.505        1-2     12.729 /_   -1.0    1.0179
   -          2       7.3429 /_ -150.9     1.017    12.505        2-3      12.73 /_ -121.2    1.0179
   -          3       7.3228 /_   88.6    1.0142    12.505        3-1     12.689 /_  118.9    1.0147
BUSMVMAI119 . 1       7.3592 /_  -31.0    1.0193    12.505        1-2     12.729 /_   -1.0    1.0179
   -          2       7.3429 /_ -150.9     1.017    12.505        2-3      12.73 /_ -121.2    1.0179
   -          3       7.3227 /_   88.6    1.0142    12.505        3-1     12.689 /_  118.9    1.0147
BUSMVMAI933 . 2       7.3429 /_ -150.9     1.017    12.505
BUSMVMAI926 . 2       7.3429 /_ -150.9     1.017    12.505
BUSMVMAI116 . 1       7.3587 /_  -31.0    1.0192    12.505        1-2     12.729 /_   -1.0    1.0178
   -          2       7.3432 /_ -150.9    1.0171    12.505        2-3      12.73 /_ -121.2    1.0179
   -          3       7.3226 /_   88.7    1.0142    12.505        3-1     12.689 /_  118.9    1.0147
BUSMVMAI115 . 1       7.3587 /_  -31.0    1.0192    12.505        1-2     12.729 /_   -1.0    1.0178
   -          2       7.3432 /_ -150.9    1.0171    12.505        2-3      12.73 /_ -121.2    1.0179
   -          3       7.3226 /_   88.7    1.0142    12.505        3-1     12.689 /_  118.9    1.0147
BUSMVMAI117 . 1       7.3587 /_  -31.0    1.0192    12.505        1-2     12.729 /_   -1.0    1.0178
   -          2       7.3432 /_ -150.9    1.0171    12.505        2-3      12.73 /_ -121.2    1.0179
   -          3       7.3225 /_   88.7    1.0142    12.505        3-1     12.689 /_  118.9    1.0147
BUSMVMAI714 . 1       7.3587 /_  -31.0    1.0192    12.505        1-2     12.729 /_   -1.0    1.0178
   -          2       7.3432 /_ -150.9    1.0171    12.505        2-3      12.73 /_ -121.2    1.0179
   -          3       7.3226 /_   88.7    1.0142    12.505        3-1     12.689 /_  118.9    1.0147
BUSMVMAI715 . 1       7.3587 /_  -31.0    1.0192    12.505        1-2     12.729 /_   -1.0    1.0178
   -          2       7.3432 /_ -150.9    1.0171    12.505        2-3      12.73 /_ -121.2    1.0179
   -          3       7.3225 /_   88.7    1.0142    12.505        3-1     12.689 /_  118.9    1.0147
BUSMVMAI719 . 1       7.3575 /_  -31.0     1.019    12.505        1-2     12.727 /_   -1.0    1.0177
   -          2       7.3433 /_ -150.9    1.0171    12.505        2-3     12.729 /_ -121.2    1.0179
   -          3        7.322 /_   88.7    1.0141    12.505        3-1     12.688 /_  118.9    1.0146
BUSMVMAI921 . 1       7.3591 /_  -31.0    1.0193    12.505
BUSMVMAI922 . 1       7.3591 /_  -31.0    1.0193    12.505
BUSMVMAI924 . 3        7.322 /_   88.7    1.0141    12.505
BUSMVMAI923 . 3        7.322 /_   88.7    1.0141    12.505
BUSMVMAI930 . 3        7.322 /_   88.7    1.0141    12.505
BUSMVMAI925 . 2       7.3428 /_ -150.9     1.017    12.505
BUSMVMAI934 . 2       7.3428 /_ -150.9     1.017    12.505
BUSMVMAI2197  1       7.3583 /_  -31.0    1.0192    12.505
BUSMVMAI937 . 3       7.3227 /_   88.6    1.0142    12.505
BUSMVMAI717 . 1       7.3575 /_  -31.0     1.019    12.505        1-2     12.727 /_   -1.0    1.0177
   -          2       7.3433 /_ -150.9    1.0171    12.505        2-3     12.729 /_ -121.2    1.0179
   -          3       7.3221 /_   88.7    1.0141    12.505        3-1     12.688 /_  118.9    1.0146
BUSMVMAI724 . 1       7.3575 /_  -31.0     1.019    12.505        1-2     12.727 /_   -1.0    1.0177
   -          2       7.3433 /_ -150.9    1.0171    12.505        2-3     12.729 /_ -121.2    1.0179
   -          3       7.3221 /_   88.7    1.0141    12.505        3-1     12.688 /_  118.9    1.0146
BUSMVMAI943 . 1       7.3575 /_  -31.0     1.019    12.505
BUSMVMAI935 . 2       7.3428 /_ -150.9     1.017    12.505
BUSMVMAI936 . 3       7.3226 /_   88.6    1.0142    12.505
BUSMVMAI940 . 3       7.3226 /_   88.6    1.0142    12.505
BUSMVMAI938 . 3       7.3227 /_   88.6    1.0142    12.505
BUSMVMAI939 . 3       7.3227 /_   88.6    1.0142    12.505
BUSMVMAI941 . 3       7.3226 /_   88.6    1.0142    12.505
BUSMVMAI125 . 1       7.3585 /_  -31.0    1.0192    12.505        1-2     12.728 /_   -1.0    1.0178
   -          2       7.3438 /_ -150.9    1.0171    12.505        2-3      12.73 /_ -121.2     1.018
   -          3       7.3223 /_   88.7    1.0142    12.505        3-1     12.689 /_  118.9    1.0147
BUSMVMAI128 . 1       7.3585 /_  -31.0    1.0192    12.505        1-2     12.728 /_   -1.0    1.0178
   -          2       7.3438 /_ -150.9    1.0171    12.505        2-3      12.73 /_ -121.2     1.018
   -          3       7.3223 /_   88.7    1.0142    12.505        3-1     12.689 /_  118.9    1.0147
BUSMVMAI721 . 1       7.3585 /_  -31.0    1.0192    12.505        1-2     12.728 /_   -1.0    1.0178
   -          2       7.3438 /_ -150.9    1.0171    12.505        2-3      12.73 /_ -121.2     1.018
   -          3       7.3223 /_   88.7    1.0142    12.505        3-1     12.689 /_  118.9    1.0147
BUSMVMAI127 . 1       7.3575 /_  -31.0     1.019    12.505        1-2     12.727 /_   -1.0    1.0177
   -          2       7.3433 /_ -150.9    1.0171    12.505        2-3     12.729 /_ -121.2    1.0179
   -          3        7.322 /_   88.7    1.0141    12.505        3-1     12.688 /_  118.9    1.0146
BUSMVMAI710 . 1       7.3575 /_  -31.0     1.019    12.505        1-2     12.727 /_   -1.0    1.0177
   -          2       7.3434 /_ -150.9    1.0171    12.505        2-3     12.729 /_ -121.2    1.0179
   -          3        7.322 /_   88.7    1.0141    12.505        3-1     12.688 /_  118.9    1.0146
BUSMVMAI129 . 1       7.3585 /_  -31.0    1.0192    12.505        1-2     12.728 /_   -1.0    1.0178
   -          2       7.3438 /_ -150.9    1.0171    12.505        2-3      12.73 /_ -121.2     1.018
   -          3       7.3223 /_   88.7    1.0142    12.505        3-1     12.689 /_  118.9    1.0147
BUSMVMAI130 . 1       7.3585 /_  -31.0    1.0192    12.505        1-2     12.728 /_   -1.0    1.0178
   -          2       7.3438 /_ -150.9    1.0171    12.505        2-3      12.73 /_ -121.2     1.018
   -          3       7.3223 /_   88.7    1.0142    12.505        3-1     12.689 /_  118.9    1.0147
BUSMVMAI131 . 1       7.3585 /_  -31.0    1.0192    12.505        1-2     12.728 /_   -1.0    1.0178
   -          2       7.3438 /_ -150.9    1.0171    12.505        2-3      12.73 /_ -121.2     1.018
   -          3       7.3223 /_   88.7    1.0142    12.505        3-1     12.689 /_  118.9    1.0147
BUSMVMAI137 . 1       7.3743 /_  -30.4    1.0214    12.505        1-2     12.779 /_   -0.5    1.0219
   -          2        7.376 /_ -150.5    1.0216    12.505        2-3     12.771 /_ -120.6    1.0213
   -          3       7.3645 /_   89.4      1.02    12.505        3-1     12.753 /_  119.5    1.0198
BUSMVMAI180 . 1       7.3743 /_  -30.4    1.0214    12.505        1-2     12.779 /_   -0.5    1.0219
   -          2        7.376 /_ -150.5    1.0216    12.505        2-3     12.771 /_ -120.6    1.0213
   -          3       7.3644 /_   89.4      1.02    12.505        3-1     12.753 /_  119.5    1.0198
BUSMVMAI139 . 1        7.374 /_  -30.5    1.0213    12.505        1-2     12.776 /_   -0.5    1.0216
   -          2       7.3728 /_ -150.6    1.0212    12.505        2-3     12.768 /_ -120.6     1.021
   -          3        7.361 /_   89.3    1.0195    12.505        3-1     12.748 /_  119.5    1.0194
BUSMVMAI138 . 1       7.3739 /_  -30.5    1.0213    12.505        1-2     12.775 /_   -0.5    1.0216
   -          2       7.3723 /_ -150.6    1.0211    12.505        2-3     12.767 /_ -120.6     1.021
   -          3       7.3604 /_   89.3    1.0194    12.505        3-1     12.747 /_  119.4    1.0193
BUSMVMAI175 . 1       7.3738 /_  -30.5    1.0213    12.505        1-2     12.774 /_   -0.5    1.0215
   -          2       7.3718 /_ -150.6     1.021    12.505        2-3     12.767 /_ -120.7    1.0209
   -          3       7.3598 /_   89.3    1.0194    12.505        3-1     12.746 /_  119.4    1.0193
BUSMVMAI173 . 1        7.374 /_  -30.5    1.0213    12.505        1-2     12.776 /_   -0.5    1.0216
   -          2       7.3732 /_ -150.5    1.0212    12.505        2-3     12.768 /_ -120.6     1.021
   -          3       7.3614 /_   89.3    1.0196    12.505        3-1     12.749 /_  119.5    1.0195
BUSMVMAI141 . 1       7.3738 /_  -30.5    1.0213    12.505        1-2     12.774 /_   -0.5    1.0215
   -          2       7.3713 /_ -150.6     1.021    12.505        2-3     12.766 /_ -120.7    1.0209
   -          3       7.3593 /_   89.3    1.0193    12.505        3-1     12.746 /_  119.4    1.0192
BUSMVMAI140 . 1       7.3737 /_  -30.5    1.0213    12.505        1-2     12.773 /_   -0.5    1.0214
   -          2       7.3707 /_ -150.6    1.0209    12.505        2-3     12.766 /_ -120.7    1.0208
   -          3       7.3586 /_   89.3    1.0192    12.505        3-1     12.745 /_  119.4    1.0191
BUSMVMAI176 . 1       7.3736 /_  -30.5    1.0213    12.505        1-2     12.772 /_   -0.6    1.0213
...